/*--------------------------------*- C++ -*----------------------------------*\
| =========                 |                                                 |
| \\      /  F ield         | OpenFOAM: The Open Source CFD Toolbox           |
|  \\    /   O peration     | Version:  2412                                  |
|   \\  /    A nd           | Website:  www.openfoam.com                      |
|    \\/     M anipulation  |                                                 |
\*---------------------------------------------------------------------------*/
FoamFile
{
    version     2.0;
    format      ascii;
    arch        "LSB;label=32;scalar=64";
    class       featureEdgeMesh;
    location    "constant/triSurface";
    object      desk.eMesh;
}
// * * * * * * * * * * * * * * * * * * * * * * * * * * * * * * * * * * * * * //


// points:

40
(
(-4.188827 1.421527 0.666708)
(-4.188827 1.421527 0.86672)
(-4.188827 2.621527 0.86672)
(-4.188827 2.621527 0.666708)
(-1.839868 2.621527 0.86672)
(-1.839868 2.621527 0.666708)
(-1.839868 1.421527 0.86672)
(-1.839868 1.421527 0.666708)
(-2.035615 1.421527 0)
(-2.035615 1.421527 0.666709)
(-2.035615 1.521527 0.666709)
(-2.035615 1.521527 0)
(-1.839868 1.521527 0.666709)
(-1.839868 1.521527 0)
(-1.839868 1.421527 0.666709)
(-1.839868 1.421527 0)
(-3.99308 1.421527 0)
(-3.99308 1.521527 0)
(-3.99308 1.521527 0.666709)
(-3.99308 1.421527 0.666709)
(-4.188827 1.521527 0)
(-4.188827 1.521527 0.666709)
(-4.188827 1.421527 0)
(-4.188827 1.421527 0.666709)
(-2.035615 2.621527 0)
(-2.035615 2.521527 0)
(-2.035615 2.521527 0.666709)
(-2.035615 2.621527 0.666709)
(-1.839868 2.521527 0)
(-1.839868 2.521527 0.666709)
(-1.839868 2.621527 0)
(-1.839868 2.621527 0.666709)
(-3.99308 2.621527 0)
(-3.99308 2.621527 0.666709)
(-3.99308 2.521527 0.666709)
(-3.99308 2.521527 0)
(-4.188827 2.521527 0.666709)
(-4.188827 2.521527 0)
(-4.188827 2.621527 0.666709)
(-4.188827 2.621527 0)
)


// edges:

60
(
(0 1)
(1 2)
(2 3)
(3 0)
(2 4)
(4 5)
(5 3)
(4 6)
(6 7)
(7 5)
(0 7)
(6 1)
(8 9)
(9 10)
(10 11)
(11 8)
(10 12)
(12 13)
(13 11)
(12 14)
(14 15)
(15 13)
(14 9)
(8 15)
(17 18)
(16 17)
(19 16)
(18 19)
(20 21)
(17 20)
(21 18)
(22 23)
(20 22)
(23 21)
(22 16)
(19 23)
(25 26)
(24 25)
(27 24)
(26 27)
(28 29)
(25 28)
(29 26)
(30 31)
(28 30)
(31 29)
(30 24)
(27 31)
(32 33)
(33 34)
(34 35)
(35 32)
(34 36)
(36 37)
(37 35)
(36 38)
(38 39)
(39 37)
(38 33)
(32 39)
)

// * * * * * * * * * * * * * * * * * * * * * * * * * * * * * * * * * * * * * //


// ************************************************************************* //
