/*--------------------------------*- C++ -*----------------------------------*\
| =========                 |                                                 |
| \\      /  F ield         | OpenFOAM: The Open Source CFD Toolbox           |
|  \\    /   O peration     | Version:  2412                                  |
|   \\  /    A nd           | Website:  www.openfoam.com                      |
|    \\/     M anipulation  |                                                 |
\*---------------------------------------------------------------------------*/
FoamFile
{
    version     2.0;
    format      ascii;
    arch        "LSB;label=32;scalar=64";
    class       featureEdgeMesh;
    location    "constant/triSurface";
    object      fan.eMesh;
}
// * * * * * * * * * * * * * * * * * * * * * * * * * * * * * * * * * * * * * //


// points:

160
(
(-3.064414 1.4 2.454165)
(-3.079032 1.4 2.50198)
(-3.079032 1.9 2.50198)
(-3.064414 1.9 2.454165)
(-2.935586 1.9 2.545835)
(-2.920968 1.9 2.49802)
(-2.935586 1.4 2.545835)
(-2.920968 1.4 2.49802)
(-3.079032 2.6 2.49802)
(-3.079032 2.1 2.49802)
(-3.064414 2.1 2.545835)
(-3.064414 2.6 2.545835)
(-2.935586 2.1 2.454165)
(-2.920968 2.1 2.50198)
(-2.935586 2.6 2.454165)
(-2.920968 2.6 2.50198)
(-3.6 2.064414 2.454165)
(-3.6 2.079032 2.50198)
(-3.1 2.079032 2.50198)
(-3.1 2.064414 2.454165)
(-3.1 1.935586 2.545835)
(-3.1 1.920968 2.49802)
(-3.6 1.935586 2.545835)
(-3.6 1.920968 2.49802)
(-2.4 2.079032 2.49802)
(-2.9 2.079032 2.49802)
(-2.9 2.064414 2.545835)
(-2.4 2.064414 2.545835)
(-2.9 1.935586 2.454165)
(-2.9 1.920968 2.50198)
(-2.4 1.935586 2.454165)
(-2.4 1.920968 2.50198)
(-3 2.028 2.861)
(-2.994537 2.027462 2.861)
(-2.994537 2.027462 2.539)
(-3 2.028 2.539)
(-2.989285 2.025869 2.861)
(-2.989285 2.025869 2.539)
(-2.984444 2.023281 2.861)
(-2.984444 2.023281 2.539)
(-2.980201 2.019799 2.861)
(-2.980201 2.019799 2.539)
(-2.976719 2.015556 2.861)
(-2.976719 2.015556 2.539)
(-2.974131 2.010715 2.861)
(-2.974131 2.010715 2.539)
(-2.972538 2.005463 2.861)
(-2.972538 2.005463 2.539)
(-2.972 2 2.861)
(-2.972 2 2.539)
(-2.972538 1.994537 2.861)
(-2.972538 1.994537 2.539)
(-2.974131 1.989285 2.861)
(-2.974131 1.989285 2.539)
(-2.976719 1.984444 2.861)
(-2.976719 1.984444 2.539)
(-2.980201 1.980201 2.861)
(-2.980201 1.980201 2.539)
(-2.984444 1.976719 2.861)
(-2.984444 1.976719 2.539)
(-2.989285 1.974131 2.861)
(-2.989285 1.974131 2.539)
(-2.994538 1.972538 2.861)
(-2.994538 1.972538 2.539)
(-3 1.972 2.861)
(-3 1.972 2.539)
(-3.005463 1.972538 2.861)
(-3.005463 1.972538 2.539)
(-3.010715 1.974131 2.861)
(-3.010715 1.974131 2.539)
(-3.015556 1.976719 2.861)
(-3.015556 1.976719 2.539)
(-3.019799 1.980201 2.861)
(-3.019799 1.980201 2.539)
(-3.023281 1.984444 2.861)
(-3.023281 1.984444 2.539)
(-3.025869 1.989285 2.861)
(-3.025869 1.989285 2.539)
(-3.027462 1.994537 2.861)
(-3.027462 1.994537 2.539)
(-3.028 2 2.861)
(-3.028 2 2.539)
(-3.027462 2.005463 2.861)
(-3.027462 2.005463 2.539)
(-3.025869 2.010715 2.861)
(-3.025869 2.010715 2.539)
(-3.023281 2.015556 2.861)
(-3.023281 2.015556 2.539)
(-3.019799 2.019799 2.861)
(-3.019799 2.019799 2.539)
(-3.015556 2.023281 2.861)
(-3.015556 2.023281 2.539)
(-3.010715 2.025869 2.861)
(-3.010715 2.025869 2.539)
(-3.005462 2.027462 2.861)
(-3.005462 2.027462 2.539)
(-3 2.143 2.55)
(-2.985984 2.142312 2.55)
(-2.972102 2.140252 2.55)
(-2.958489 2.136842 2.55)
(-2.945276 2.132115 2.55)
(-2.93259 2.126115 2.55)
(-2.920553 2.1189 2.55)
(-2.909282 2.110541 2.55)
(-2.898884 2.101116 2.55)
(-2.889459 2.090718 2.55)
(-2.8811 2.079447 2.55)
(-2.873885 2.06741 2.55)
(-2.867885 2.054724 2.55)
(-2.863157 2.041511 2.55)
(-2.859748 2.027898 2.55)
(-2.857688 2.014016 2.55)
(-2.857 2 2.55)
(-2.857688 1.985983 2.55)
(-2.859748 1.972102 2.55)
(-2.863158 1.958489 2.55)
(-2.867885 1.945276 2.55)
(-2.873885 1.93259 2.55)
(-2.8811 1.920553 2.55)
(-2.889459 1.909282 2.55)
(-2.898884 1.898884 2.55)
(-2.909282 1.889459 2.55)
(-2.920553 1.8811 2.55)
(-2.93259 1.873885 2.55)
(-2.945276 1.867885 2.55)
(-2.958489 1.863157 2.55)
(-2.972102 1.859748 2.55)
(-2.985984 1.857688 2.55)
(-3 1.857 2.55)
(-3.014016 1.857688 2.55)
(-3.027898 1.859748 2.55)
(-3.041511 1.863157 2.55)
(-3.054724 1.867885 2.55)
(-3.06741 1.873885 2.55)
(-3.079447 1.8811 2.55)
(-3.090718 1.889459 2.55)
(-3.101116 1.898884 2.55)
(-3.110541 1.909282 2.55)
(-3.1189 1.920553 2.55)
(-3.126115 1.93259 2.55)
(-3.132115 1.945276 2.55)
(-3.136842 1.958489 2.55)
(-3.140252 1.972102 2.55)
(-3.142312 1.985983 2.55)
(-3.143 2 2.55)
(-3.142312 2.014016 2.55)
(-3.140252 2.027898 2.55)
(-3.136842 2.041511 2.55)
(-3.132115 2.054724 2.55)
(-3.126115 2.06741 2.55)
(-3.1189 2.079447 2.55)
(-3.110541 2.090718 2.55)
(-3.101116 2.101116 2.55)
(-3.090718 2.11054 2.55)
(-3.079447 2.1189 2.55)
(-3.06741 2.126115 2.55)
(-3.054724 2.132115 2.55)
(-3.041511 2.136842 2.55)
(-3.027898 2.140252 2.55)
(-3.014016 2.142311 2.55)
)


// edges:

176
(
(0 1)
(1 2)
(2 3)
(3 0)
(2 4)
(4 5)
(5 3)
(4 6)
(6 7)
(7 5)
(0 7)
(6 1)
(9 10)
(8 9)
(11 8)
(10 11)
(12 13)
(9 12)
(13 10)
(14 15)
(12 14)
(15 13)
(14 8)
(11 15)
(16 17)
(17 18)
(18 19)
(19 16)
(18 20)
(20 21)
(21 19)
(20 22)
(22 23)
(23 21)
(22 17)
(16 23)
(25 26)
(24 25)
(27 24)
(26 27)
(28 29)
(25 28)
(29 26)
(30 31)
(28 30)
(31 29)
(30 24)
(27 31)
(32 33)
(34 35)
(33 36)
(37 34)
(36 38)
(39 37)
(38 40)
(41 39)
(40 42)
(43 41)
(42 44)
(45 43)
(44 46)
(47 45)
(46 48)
(49 47)
(48 50)
(51 49)
(50 52)
(53 51)
(52 54)
(55 53)
(54 56)
(57 55)
(56 58)
(59 57)
(58 60)
(61 59)
(60 62)
(63 61)
(62 64)
(65 63)
(64 66)
(67 65)
(66 68)
(69 67)
(68 70)
(71 69)
(70 72)
(73 71)
(72 74)
(75 73)
(74 76)
(77 75)
(76 78)
(79 77)
(78 80)
(81 79)
(80 82)
(83 81)
(82 84)
(85 83)
(84 86)
(87 85)
(86 88)
(89 87)
(88 90)
(91 89)
(90 92)
(93 91)
(94 92)
(32 94)
(95 93)
(35 95)
(96 97)
(97 98)
(98 99)
(99 100)
(100 101)
(101 102)
(102 103)
(103 104)
(104 105)
(105 106)
(106 107)
(107 108)
(108 109)
(109 110)
(110 111)
(111 112)
(112 113)
(113 114)
(114 115)
(115 116)
(116 117)
(117 118)
(118 119)
(119 120)
(120 121)
(121 122)
(122 123)
(123 124)
(124 125)
(125 126)
(126 127)
(127 128)
(128 129)
(129 130)
(130 131)
(131 132)
(132 133)
(133 134)
(134 135)
(135 136)
(136 137)
(137 138)
(138 139)
(139 140)
(140 141)
(141 142)
(142 143)
(143 144)
(144 145)
(145 146)
(146 147)
(147 148)
(148 149)
(149 150)
(150 151)
(151 152)
(152 153)
(153 154)
(154 155)
(155 156)
(156 157)
(157 158)
(158 159)
(159 96)
)

// * * * * * * * * * * * * * * * * * * * * * * * * * * * * * * * * * * * * * //


// ************************************************************************* //
