/*--------------------------------*- C++ -*----------------------------------*\
| =========                 |                                                 |
| \\      /  F ield         | OpenFOAM: The Open Source CFD Toolbox           |
|  \\    /   O peration     | Version:  2412                                  |
|   \\  /    A nd           | Website:  www.openfoam.com                      |
|    \\/     M anipulation  |                                                 |
\*---------------------------------------------------------------------------*/
FoamFile
{
    version     2.0;
    format      binary;
    arch        "LSB;label=32;scalar=64";
    class       polyBoundaryMesh;
    location    "constant/polyMesh";
    object      boundary;
}
// * * * * * * * * * * * * * * * * * * * * * * * * * * * * * * * * * * * * * //

6
(
    patch0
    {
        type            cyclic;
        inGroups        1(cyclic);
        nFaces          4096;
        startFace       774144;
        matchTolerance  0.0001;
        transform       unknown;
        neighbourPatch  patch1;
    }
    patch1
    {
        type            cyclic;
        inGroups        1(cyclic);
        nFaces          4096;
        startFace       778240;
        matchTolerance  0.0001;
        transform       unknown;
        neighbourPatch  patch0;
    }
    patch2
    {
        type            cyclic;
        inGroups        1(cyclic);
        nFaces          4096;
        startFace       782336;
        matchTolerance  0.0001;
        transform       unknown;
        neighbourPatch  patch3;
    }
    patch3
    {
        type            cyclic;
        inGroups        1(cyclic);
        nFaces          4096;
        startFace       786432;
        matchTolerance  0.0001;
        transform       unknown;
        neighbourPatch  patch2;
    }
    patch4
    {
        type            cyclic;
        inGroups        1(cyclic);
        nFaces          4096;
        startFace       790528;
        matchTolerance  0.0001;
        transform       unknown;
        neighbourPatch  patch5;
    }
    patch5
    {
        type            cyclic;
        inGroups        1(cyclic);
        nFaces          4096;
        startFace       794624;
        matchTolerance  0.0001;
        transform       unknown;
        neighbourPatch  patch4;
    }
)

// ************************************************************************* //
