/*--------------------------------*- C++ -*----------------------------------*\
| =========                 |                                                 |
| \\      /  F ield         | OpenFOAM: The Open Source CFD Toolbox           |
|  \\    /   O peration     | Version:  2412                                  |
|   \\  /    A nd           | Website:  www.openfoam.com                      |
|    \\/     M anipulation  |                                                 |
\*---------------------------------------------------------------------------*/
FoamFile
{
    version     2.0;
    format      ascii;
    arch        "LSB;label=32;scalar=64";
    class       extendedFeatureEdgeMesh;
    location    "constant/extendedFeatureEdgeMesh";
    object      AMI.extendedFeatureEdgeMesh;
}
// * * * * * * * * * * * * * * * * * * * * * * * * * * * * * * * * * * * * * //

// points

256
(
(-3 2.78955 2.888048)
(-2.961259 2.788599 2.888048)
(-2.961259 2.788599 2.256408)
(-3 2.78955 2.256408)
(-2.922611 2.785748 2.888048)
(-2.922611 2.785748 2.256408)
(-2.884149 2.781004 2.888048)
(-2.884149 2.781004 2.256408)
(-2.845967 2.774379 2.888048)
(-2.845967 2.774379 2.256408)
(-2.808155 2.765888 2.888048)
(-2.808155 2.765888 2.256408)
(-2.770806 2.755552 2.888048)
(-2.770806 2.755552 2.256408)
(-2.734009 2.743396 2.888048)
(-2.734009 2.743396 2.256408)
(-2.697852 2.729449 2.888048)
(-2.697852 2.729449 2.256408)
(-2.662424 2.713744 2.888048)
(-2.662424 2.713744 2.256408)
(-2.627809 2.696321 2.888048)
(-2.627809 2.696321 2.256408)
(-2.59409 2.677219 2.888048)
(-2.59409 2.677219 2.256408)
(-2.56135 2.656487 2.888048)
(-2.56135 2.656487 2.256408)
(-2.529666 2.634172 2.888048)
(-2.529666 2.634172 2.256408)
(-2.499115 2.61033 2.888048)
(-2.499115 2.61033 2.256408)
(-2.469771 2.585018 2.888048)
(-2.469771 2.585018 2.256408)
(-2.441704 2.558296 2.888048)
(-2.441704 2.558296 2.256408)
(-2.414982 2.530229 2.888048)
(-2.414982 2.530229 2.256408)
(-2.38967 2.500885 2.888048)
(-2.38967 2.500885 2.256408)
(-2.365828 2.470334 2.888048)
(-2.365828 2.470334 2.256408)
(-2.343513 2.43865 2.888048)
(-2.343513 2.43865 2.256408)
(-2.322781 2.40591 2.888048)
(-2.322781 2.40591 2.256408)
(-2.303679 2.372191 2.888048)
(-2.303679 2.372191 2.256408)
(-2.286256 2.337576 2.888048)
(-2.286256 2.337576 2.256408)
(-2.270551 2.302147 2.888048)
(-2.270551 2.302147 2.256408)
(-2.256604 2.265991 2.888048)
(-2.256604 2.265991 2.256408)
(-2.244448 2.229194 2.888048)
(-2.244448 2.229194 2.256408)
(-2.234112 2.191845 2.888048)
(-2.234112 2.191845 2.256408)
(-2.225621 2.154033 2.888048)
(-2.225621 2.154033 2.256408)
(-2.218996 2.115851 2.888048)
(-2.218996 2.115851 2.256408)
(-2.214252 2.077389 2.888048)
(-2.214252 2.077389 2.256408)
(-2.211401 2.038741 2.888048)
(-2.211401 2.038741 2.256408)
(-2.21045 2 2.888048)
(-2.21045 2 2.256408)
(-2.211401 1.961258 2.888048)
(-2.211401 1.961258 2.256408)
(-2.214252 1.92261 2.888048)
(-2.214252 1.92261 2.256408)
(-2.218996 1.884149 2.888048)
(-2.218996 1.884149 2.256408)
(-2.225621 1.845966 2.888048)
(-2.225621 1.845966 2.256408)
(-2.234112 1.808155 2.888048)
(-2.234112 1.808155 2.256408)
(-2.244448 1.770805 2.888048)
(-2.244448 1.770805 2.256408)
(-2.256604 1.734008 2.888048)
(-2.256604 1.734008 2.256408)
(-2.270551 1.697852 2.888048)
(-2.270551 1.697852 2.256408)
(-2.286256 1.662424 2.888048)
(-2.286256 1.662424 2.256408)
(-2.303679 1.627809 2.888048)
(-2.303679 1.627809 2.256408)
(-2.322781 1.59409 2.888048)
(-2.322781 1.59409 2.256408)
(-2.343513 1.56135 2.888048)
(-2.343513 1.56135 2.256408)
(-2.365828 1.529666 2.888048)
(-2.365828 1.529666 2.256408)
(-2.38967 1.499115 2.888048)
(-2.38967 1.499115 2.256408)
(-2.414982 1.469771 2.888048)
(-2.414982 1.469771 2.256408)
(-2.441704 1.441704 2.888048)
(-2.441704 1.441704 2.256408)
(-2.469771 1.414983 2.888048)
(-2.469771 1.414983 2.256408)
(-2.499115 1.38967 2.888048)
(-2.499115 1.38967 2.256408)
(-2.529665 1.365828 2.888048)
(-2.529665 1.365828 2.256408)
(-2.561349 1.343514 2.888048)
(-2.561349 1.343514 2.256408)
(-2.59409 1.322781 2.888048)
(-2.59409 1.322781 2.256408)
(-2.627808 1.30368 2.888048)
(-2.627808 1.30368 2.256408)
(-2.662423 1.286256 2.888048)
(-2.662423 1.286256 2.256408)
(-2.697852 1.270552 2.888048)
(-2.697852 1.270552 2.256408)
(-2.734008 1.256605 2.888048)
(-2.734008 1.256605 2.256408)
(-2.770805 1.244448 2.888048)
(-2.770805 1.244448 2.256408)
(-2.808154 1.234113 2.888048)
(-2.808154 1.234113 2.256408)
(-2.845965 1.225622 2.888048)
(-2.845965 1.225622 2.256408)
(-2.884148 1.218996 2.888048)
(-2.884148 1.218996 2.256408)
(-2.922609 1.214252 2.888048)
(-2.922609 1.214252 2.256408)
(-2.961257 1.211401 2.888048)
(-2.961257 1.211401 2.256408)
(-2.999999 1.21045 2.888048)
(-2.999999 1.21045 2.256408)
(-3.03874 1.211401 2.888048)
(-3.03874 1.211401 2.256408)
(-3.077388 1.214252 2.888048)
(-3.077388 1.214252 2.256408)
(-3.115849 1.218996 2.888048)
(-3.115849 1.218996 2.256408)
(-3.154032 1.225621 2.888048)
(-3.154032 1.225621 2.256408)
(-3.191843 1.234112 2.888048)
(-3.191843 1.234112 2.256408)
(-3.229192 1.244448 2.888048)
(-3.229192 1.244448 2.256408)
(-3.265989 1.256604 2.888048)
(-3.265989 1.256604 2.256408)
(-3.302146 1.27055 2.888048)
(-3.302146 1.27055 2.256408)
(-3.337574 1.286255 2.888048)
(-3.337574 1.286255 2.256408)
(-3.372189 1.303678 2.888048)
(-3.372189 1.303678 2.256408)
(-3.405908 1.32278 2.888048)
(-3.405908 1.32278 2.256408)
(-3.438648 1.343512 2.888048)
(-3.438648 1.343512 2.256408)
(-3.470332 1.365826 2.888048)
(-3.470332 1.365826 2.256408)
(-3.500883 1.389668 2.888048)
(-3.500883 1.389668 2.256408)
(-3.530227 1.414981 2.888048)
(-3.530227 1.414981 2.256408)
(-3.558294 1.441702 2.888048)
(-3.558294 1.441702 2.256408)
(-3.585016 1.469769 2.888048)
(-3.585016 1.469769 2.256408)
(-3.610328 1.499113 2.888048)
(-3.610328 1.499113 2.256408)
(-3.634171 1.529664 2.888048)
(-3.634171 1.529664 2.256408)
(-3.656485 1.561348 2.888048)
(-3.656485 1.561348 2.256408)
(-3.677218 1.594088 2.888048)
(-3.677218 1.594088 2.256408)
(-3.69632 1.627807 2.888048)
(-3.69632 1.627807 2.256408)
(-3.713743 1.662422 2.888048)
(-3.713743 1.662422 2.256408)
(-3.729448 1.697851 2.888048)
(-3.729448 1.697851 2.256408)
(-3.743395 1.734007 2.888048)
(-3.743395 1.734007 2.256408)
(-3.755551 1.770804 2.888048)
(-3.755551 1.770804 2.256408)
(-3.765887 1.808154 2.888048)
(-3.765887 1.808154 2.256408)
(-3.774378 1.845965 2.888048)
(-3.774378 1.845965 2.256408)
(-3.781004 1.884148 2.888048)
(-3.781004 1.884148 2.256408)
(-3.785748 1.922609 2.888048)
(-3.785748 1.922609 2.256408)
(-3.788599 1.961257 2.888048)
(-3.788599 1.961257 2.256408)
(-3.78955 1.999999 2.888048)
(-3.78955 1.999999 2.256408)
(-3.788599 2.03874 2.888048)
(-3.788599 2.03874 2.256408)
(-3.785748 2.077389 2.888048)
(-3.785748 2.077389 2.256408)
(-3.781004 2.11585 2.888048)
(-3.781004 2.11585 2.256408)
(-3.774379 2.154033 2.888048)
(-3.774379 2.154033 2.256408)
(-3.765888 2.191844 2.888048)
(-3.765888 2.191844 2.256408)
(-3.755552 2.229194 2.888048)
(-3.755552 2.229194 2.256408)
(-3.743396 2.265991 2.888048)
(-3.743396 2.265991 2.256408)
(-3.729449 2.302147 2.888048)
(-3.729449 2.302147 2.256408)
(-3.713744 2.337576 2.888048)
(-3.713744 2.337576 2.256408)
(-3.696321 2.372191 2.888048)
(-3.696321 2.372191 2.256408)
(-3.677219 2.40591 2.888048)
(-3.677219 2.40591 2.256408)
(-3.656487 2.43865 2.888048)
(-3.656487 2.43865 2.256408)
(-3.634172 2.470334 2.888048)
(-3.634172 2.470334 2.256408)
(-3.61033 2.500885 2.888048)
(-3.61033 2.500885 2.256408)
(-3.585017 2.53023 2.888048)
(-3.585017 2.53023 2.256408)
(-3.558295 2.558296 2.888048)
(-3.558295 2.558296 2.256408)
(-3.530229 2.585018 2.888048)
(-3.530229 2.585018 2.256408)
(-3.500884 2.610331 2.888048)
(-3.500884 2.610331 2.256408)
(-3.470333 2.634173 2.888048)
(-3.470333 2.634173 2.256408)
(-3.438649 2.656487 2.888048)
(-3.438649 2.656487 2.256408)
(-3.405909 2.67722 2.888048)
(-3.405909 2.67722 2.256408)
(-3.37219 2.696321 2.888048)
(-3.37219 2.696321 2.256408)
(-3.337575 2.713745 2.888048)
(-3.337575 2.713745 2.256408)
(-3.302146 2.729449 2.888048)
(-3.302146 2.729449 2.256408)
(-3.26599 2.743396 2.888048)
(-3.26599 2.743396 2.256408)
(-3.229192 2.755552 2.888048)
(-3.229192 2.755552 2.256408)
(-3.191843 2.765888 2.888048)
(-3.191843 2.765888 2.256408)
(-3.154032 2.774379 2.888048)
(-3.154032 2.774379 2.256408)
(-3.115849 2.781004 2.888048)
(-3.115849 2.781004 2.256408)
(-3.077387 2.785748 2.888048)
(-3.077387 2.785748 2.256408)
(-3.038739 2.788599 2.888048)
(-3.038739 2.788599 2.256408)
)

// edges

256
(
(0 1)
(2 3)
(1 4)
(5 2)
(4 6)
(7 5)
(6 8)
(9 7)
(8 10)
(11 9)
(10 12)
(13 11)
(12 14)
(15 13)
(14 16)
(17 15)
(16 18)
(19 17)
(18 20)
(21 19)
(20 22)
(23 21)
(22 24)
(25 23)
(24 26)
(27 25)
(26 28)
(29 27)
(28 30)
(31 29)
(30 32)
(33 31)
(32 34)
(35 33)
(34 36)
(37 35)
(36 38)
(39 37)
(38 40)
(41 39)
(40 42)
(43 41)
(42 44)
(45 43)
(44 46)
(47 45)
(46 48)
(49 47)
(48 50)
(51 49)
(50 52)
(53 51)
(52 54)
(55 53)
(54 56)
(57 55)
(56 58)
(59 57)
(58 60)
(61 59)
(60 62)
(63 61)
(62 64)
(65 63)
(64 66)
(67 65)
(66 68)
(69 67)
(68 70)
(71 69)
(70 72)
(73 71)
(72 74)
(75 73)
(74 76)
(77 75)
(76 78)
(79 77)
(78 80)
(81 79)
(80 82)
(83 81)
(82 84)
(85 83)
(84 86)
(87 85)
(86 88)
(89 87)
(88 90)
(91 89)
(90 92)
(93 91)
(92 94)
(95 93)
(94 96)
(97 95)
(96 98)
(99 97)
(98 100)
(101 99)
(100 102)
(103 101)
(102 104)
(105 103)
(104 106)
(107 105)
(106 108)
(109 107)
(108 110)
(111 109)
(110 112)
(113 111)
(112 114)
(115 113)
(114 116)
(117 115)
(116 118)
(119 117)
(118 120)
(121 119)
(120 122)
(123 121)
(122 124)
(125 123)
(124 126)
(127 125)
(126 128)
(129 127)
(128 130)
(131 129)
(130 132)
(133 131)
(132 134)
(135 133)
(134 136)
(137 135)
(136 138)
(139 137)
(138 140)
(141 139)
(140 142)
(143 141)
(142 144)
(145 143)
(144 146)
(147 145)
(146 148)
(149 147)
(148 150)
(151 149)
(150 152)
(153 151)
(152 154)
(155 153)
(154 156)
(157 155)
(156 158)
(159 157)
(158 160)
(161 159)
(160 162)
(163 161)
(162 164)
(165 163)
(164 166)
(167 165)
(166 168)
(169 167)
(168 170)
(171 169)
(170 172)
(173 171)
(172 174)
(175 173)
(174 176)
(177 175)
(176 178)
(179 177)
(178 180)
(181 179)
(180 182)
(183 181)
(182 184)
(185 183)
(184 186)
(187 185)
(186 188)
(189 187)
(188 190)
(191 189)
(190 192)
(193 191)
(192 194)
(195 193)
(194 196)
(197 195)
(196 198)
(199 197)
(198 200)
(201 199)
(200 202)
(203 201)
(202 204)
(205 203)
(204 206)
(207 205)
(206 208)
(209 207)
(208 210)
(211 209)
(210 212)
(213 211)
(212 214)
(215 213)
(214 216)
(217 215)
(216 218)
(219 217)
(218 220)
(221 219)
(220 222)
(223 221)
(222 224)
(225 223)
(224 226)
(227 225)
(226 228)
(229 227)
(228 230)
(231 229)
(230 232)
(233 231)
(232 234)
(235 233)
(234 236)
(237 235)
(236 238)
(239 237)
(238 240)
(241 239)
(240 242)
(243 241)
(242 244)
(245 243)
(244 246)
(247 245)
(246 248)
(249 247)
(248 250)
(251 249)
(250 252)
(253 251)
(254 252)
(0 254)
(255 253)
(3 255)
)

// concaveStart mixedStart nonFeatureStart
0 0 0
// internalStart flatStart openStart multipleStart
256 256 256 256
// normals

384
(
(0.02454151 0.9996988 -0)
(0 0 1)
(0.02454151 0.9996988 0)
(0 0 -1)
(0.07356892 0.9972901 -0)
(0.07356892 0.9972901 0)
(0 0 -1)
(0.1224164 0.9924788 -0)
(0 0 1)
(0.1224164 0.9924788 0)
(0.1709551 0.9852788 -0)
(0.1709551 0.9852788 0)
(0 0 -1)
(0.219103 0.9757017 -0)
(0 0 1)
(0.219103 0.9757017 0)
(0.2667143 0.9637756 -0)
(0.2667143 0.9637756 0)
(0 0 -1)
(0.3136796 0.9495289 -0)
(0 0 1)
(0.3136796 0.9495289 0)
(0.3598875 0.9329957 -0)
(0.3598875 0.9329957 0)
(0 0 -1)
(0.4052638 0.9141998 -0)
(0 0 1)
(0.4052638 0.9141998 0)
(0.4495942 0.8932329 -0)
(0.4495942 0.8932329 0)
(0 0 -1)
(0.4929076 0.8700816 -0)
(0 0 1)
(0.4929076 0.8700816 0)
(0.5349908 0.8448579 -0)
(0.5349908 0.8448579 0)
(0 0 -1)
(0.5758172 0.8175785 -0)
(0 0 1)
(0.5758172 0.8175785 0)
(0.6152261 0.7883507 -0)
(0.6152261 0.7883507 0)
(0 0 -1)
(0.65317 0.7572113 -0)
(0 0 1)
(0.65317 0.7572113 0)
(0.6895415 0.7242462 -0)
(0.6895415 0.7242462 0)
(0 0 -1)
(0.7242462 0.6895415 -0)
(0 0 1)
(0.7242462 0.6895415 0)
(0.7572113 0.65317 -0)
(0.7572113 0.65317 0)
(0 0 -1)
(0.7883507 0.6152261 -0)
(0 0 1)
(0.7883507 0.6152261 0)
(0.8175785 0.5758172 -0)
(0.8175785 0.5758172 0)
(0 0 -1)
(0.8448579 0.5349908 -0)
(0 0 1)
(0.8448579 0.5349908 0)
(0.8700816 0.4929076 -0)
(0.8700816 0.4929076 0)
(0 0 -1)
(0.8932329 0.4495942 -0)
(0 0 1)
(0.8932329 0.4495942 0)
(0.9142049 0.4052524 -0)
(0.9142049 0.4052524 0)
(0 0 -1)
(0.9329917 0.3598979 -0)
(0 0 1)
(0.9329917 0.3598979 0)
(0.9495289 0.3136796 -0)
(0.9495289 0.3136796 0)
(0 0 -1)
(0.9637756 0.2667143 -0)
(0 0 1)
(0.9637756 0.2667143 0)
(0.9757017 0.219103 -0)
(0.9757017 0.219103 0)
(0 0 -1)
(0.9852788 0.1709551 -0)
(0 0 1)
(0.9852788 0.1709551 0)
(0.9924788 0.1224164 -0)
(0.9924788 0.1224164 0)
(0 0 -1)
(0.9972901 0.07356892 -0)
(0 0 1)
(0.9972901 0.07356892 0)
(0.9996988 0.02454151 -0)
(0.9996988 0.02454151 0)
(0 0 -1)
(0.9996988 -0.02454098 0)
(0 0 1)
(0.9996988 -0.02454098 0)
(0.9972902 -0.07356869 0)
(0.9972902 -0.07356869 0)
(0 0 -1)
(0.9924785 -0.1224191 0)
(0 0 1)
(0.9924785 -0.1224191 0)
(0.9852795 -0.1709509 0)
(0.9852795 -0.1709509 0)
(0 0 -1)
(0.9757006 -0.2191083 0)
(0 0 1)
(0.9757006 -0.2191083 0)
(0.9637774 -0.266708 0)
(0.9637774 -0.266708 0)
(0 0 -1)
(0.9495289 -0.3136796 0)
(0 0 1)
(0.9495289 -0.3136796 0)
(0.9329917 -0.3598979 0)
(0.9329917 -0.3598979 0)
(0 0 -1)
(0.9142008 -0.4052615 0)
(0 0 1)
(0.9142008 -0.4052615 0)
(0.8932323 -0.4495954 0)
(0.8932323 -0.4495954 0)
(0 0 -1)
(0.8700816 -0.4929076 0)
(0 0 1)
(0.8700816 -0.4929076 0)
(0.8448588 -0.5349894 0)
(0.8448588 -0.5349894 0)
(0 0 -1)
(0.8175775 -0.5758186 0)
(0 0 1)
(0.8175775 -0.5758186 0)
(0.7883507 -0.6152261 0)
(0.7883507 -0.6152261 0)
(0 0 -1)
(0.75721 -0.6531715 0)
(0 0 1)
(0.75721 -0.6531715 0)
(0.7242477 -0.6895399 0)
(0.7242477 -0.6895399 0)
(0 0 -1)
(0.6895286 -0.7242585 0)
(0 0 1)
(0.6895286 -0.7242585 0)
(0.6531823 -0.7572007 0)
(0.6531823 -0.7572007 0)
(0 0 -1)
(0.6152399 -0.7883399 0)
(0 0 1)
(0.6152399 -0.7883399 0)
(0.5758036 -0.817588 0)
(0.5758036 -0.817588 0)
(0 0 -1)
(0.5349966 -0.8448542 0)
(0 0 1)
(0.5349966 -0.8448542 0)
(0.4928972 -0.8700875 0)
(0.4928972 -0.8700875 0)
(0 0 -1)
(0.4496188 -0.8932206 0)
(0 0 1)
(0.4496188 -0.8932206 0)
(0.4052267 -0.9142163 0)
(0.4052267 -0.9142163 0)
(0 0 -1)
(0.3598958 -0.9329925 0)
(0 0 1)
(0.3598958 -0.9329925 0)
(0.3137064 -0.94952 0)
(0.3137064 -0.94952 0)
(0 0 -1)
(0.2666899 -0.9637824 0)
(0 0 1)
(0.2666899 -0.9637824 0)
(0.2191067 -0.9757009 0)
(0.2191067 -0.9757009 0)
(0 0 -1)
(0.1709778 -0.9852749 0)
(0 0 1)
(0.1709778 -0.9852749 0)
(0.1224187 -0.9924785 0)
(0.1224187 -0.9924785 0)
(0 0 -1)
(0.07356892 -0.9972901 0)
(0 0 1)
(0.07356892 -0.9972901 0)
(0.02453783 -0.9996989 0)
(0.02453783 -0.9996989 0)
(-0 0 -1)
(-0.02453858 -0.9996989 0)
(0 0 1)
(-0.02453858 -0.9996989 -0)
(-0.07356847 -0.9972902 0)
(-0.07356847 -0.9972902 -0)
(0 0 -1)
(-0.1224194 -0.9924785 0)
(0 0 1)
(-0.1224194 -0.9924785 -0)
(-0.1709509 -0.9852795 0)
(-0.1709509 -0.9852795 -0)
(0 0 -1)
(-0.2191083 -0.9757006 0)
(0 0 1)
(-0.2191083 -0.9757006 -0)
(-0.2667143 -0.9637756 0)
(-0.2667143 -0.9637756 -0)
(0 0 -1)
(-0.3136796 -0.9495289 0)
(0 0 1)
(-0.3136796 -0.9495289 -0)
(-0.3598682 -0.9330032 0)
(-0.3598682 -0.9330032 -0)
(0 0 -1)
(-0.4052589 -0.914202 0)
(0 0 1)
(-0.4052589 -0.914202 -0)
(-0.4495966 -0.8932317 0)
(-0.4495966 -0.8932317 -0)
(0 0 -1)
(-0.4929053 -0.870083 0)
(0 0 1)
(-0.4929053 -0.870083 -0)
(-0.5349929 -0.8448565 0)
(-0.5349929 -0.8448565 -0)
(0 0 -1)
(-0.5758016 -0.8175895 0)
(0 0 1)
(-0.5758016 -0.8175895 -0)
(-0.615225 -0.7883516 0)
(-0.615225 -0.7883516 -0)
(0 0 -1)
(-0.6531854 -0.757198 0)
(0 0 1)
(-0.6531854 -0.757198 -0)
(-0.6895255 -0.7242614 0)
(-0.6895255 -0.7242614 -0)
(0 0 -1)
(-0.7242477 -0.6895399 0)
(0 0 1)
(-0.7242477 -0.6895399 -0)
(-0.7572131 -0.653168 0)
(-0.7572131 -0.653168 -0)
(0 0 -1)
(-0.788337 -0.6152437 0)
(0 0 1)
(-0.788337 -0.6152437 -0)
(-0.817588 -0.5758036 0)
(-0.817588 -0.5758036 -0)
(0 0 -1)
(-0.8448477 -0.5350069 0)
(0 0 1)
(-0.8448477 -0.5350069 -0)
(-0.8700816 -0.4929076 0)
(-0.8700816 -0.4929076 -0)
(0 0 -1)
(-0.8932323 -0.4495954 0)
(0 0 1)
(-0.8932323 -0.4495954 -0)
(-0.9142049 -0.4052524 0)
(-0.9142049 -0.4052524 -0)
(0 0 -1)
(-0.9329921 -0.3598968 0)
(0 0 1)
(-0.9329921 -0.3598968 -0)
(-0.9495289 -0.3136796 0)
(-0.9495289 -0.3136796 -0)
(0 0 -1)
(-0.9637774 -0.266708 0)
(0 0 1)
(-0.9637774 -0.266708 -0)
(-0.9757006 -0.2191083 0)
(-0.9757006 -0.2191083 -0)
(0 0 -1)
(-0.9852754 -0.1709748 0)
(0 0 1)
(-0.9852754 -0.1709748 -0)
(-0.9924785 -0.1224194 0)
(-0.9924785 -0.1224194 -0)
(0 0 -1)
(-0.9972902 -0.07356869 0)
(0 0 1)
(-0.9972902 -0.07356869 -0)
(-0.9996988 -0.0245409 0)
(-0.9996988 -0.0245409 -0)
(0 0 -1)
(-0.9996988 0.02454166 0)
(0 0 1)
(-0.9996988 0.02454166 0)
(-0.9972903 0.07356666 0)
(-0.9972903 0.07356666 0)
(0 0 -1)
(-0.9924785 0.1224194 0)
(0 0 1)
(-0.9924785 0.1224194 0)
(-0.9852795 0.1709509 0)
(-0.9852795 0.1709509 0)
(0 0 -1)
(-0.9757006 0.2191083 0)
(0 0 1)
(-0.9757006 0.2191083 0)
(-0.9637774 0.266708 0)
(-0.9637774 0.266708 0)
(0 0 -1)
(-0.9495289 0.3136796 0)
(0 0 1)
(-0.9495289 0.3136796 0)
(-0.9329917 0.3598979 0)
(-0.9329917 0.3598979 0)
(0 0 -1)
(-0.9142049 0.4052524 0)
(0 0 1)
(-0.9142049 0.4052524 0)
(-0.8932329 0.4495942 0)
(-0.8932329 0.4495942 0)
(0 0 -1)
(-0.8700816 0.4929076 0)
(0 0 1)
(-0.8700816 0.4929076 0)
(-0.8448579 0.5349908 0)
(-0.8448579 0.5349908 0)
(0 0 -1)
(-0.8175785 0.5758172 0)
(0 0 1)
(-0.8175785 0.5758172 0)
(-0.7883507 0.6152261 0)
(-0.7883507 0.6152261 0)
(0 0 -1)
(-0.7572096 0.6531719 0)
(0 0 1)
(-0.7572096 0.6531719 0)
(-0.7242345 0.6895538 0)
(-0.7242345 0.6895538 0)
(0 0 -1)
(-0.6895538 0.7242345 0)
(0 0 1)
(-0.6895538 0.7242345 0)
(-0.6531719 0.7572096 0)
(-0.6531719 0.7572096 0)
(0 0 -1)
(-0.6152261 0.7883507 0)
(0 0 1)
(-0.6152261 0.7883507 0)
(-0.5758007 0.8175901 0)
(-0.5758007 0.8175901 0)
(0 0 -1)
(-0.5350127 0.844844 0)
(0 0 1)
(-0.5350127 0.844844 0)
(-0.4928843 0.8700948 0)
(-0.4928843 0.8700948 0)
(0 0 -1)
(-0.4496187 0.8932206 0)
(0 0 1)
(-0.4496187 0.8932206 0)
(-0.4052267 0.9142163 0)
(-0.4052267 0.9142163 0)
(0 0 -1)
(-0.3598979 0.9329917 0)
(0 0 1)
(-0.3598979 0.9329917 0)
(-0.3136723 0.9495313 0)
(-0.3136723 0.9495313 0)
(0 0 -1)
(-0.2667143 0.9637756 0)
(0 0 1)
(-0.2667143 0.9637756 0)
(-0.2191083 0.9757006 0)
(-0.2191083 0.9757006 0)
(0 0 -1)
(-0.1709509 0.9852795 0)
(0 0 1)
(-0.1709509 0.9852795 0)
(-0.1224164 0.9924788 0)
(-0.1224164 0.9924788 0)
(0 0 -1)
(0 0 1)
(-0.07356847 0.9972902 0)
(-0.02454287 0.9996988 0)
(-0.07356847 0.9972902 0)
(-0.02454287 0.9996988 0)
)

// normal volume types

384
(
0
0
0
0
0
0
0
0
0
0
0
0
0
0
0
0
0
0
0
0
0
0
0
0
0
0
0
0
0
0
0
0
0
0
0
0
0
0
0
0
0
0
0
0
0
0
0
0
0
0
0
0
0
0
0
0
0
0
0
0
0
0
0
0
0
0
0
0
0
0
0
0
0
0
0
0
0
0
0
0
0
0
0
0
0
0
0
0
0
0
0
0
0
0
0
0
0
0
0
0
0
0
0
0
0
0
0
0
0
0
0
0
0
0
0
0
0
0
0
0
0
0
0
0
0
0
0
0
0
0
0
0
0
0
0
0
0
0
0
0
0
0
0
0
0
0
0
0
0
0
0
0
0
0
0
0
0
0
0
0
0
0
0
0
0
0
0
0
0
0
0
0
0
0
0
0
0
0
0
0
0
0
0
0
0
0
0
0
0
0
0
0
0
0
0
0
0
0
0
0
0
0
0
0
0
0
0
0
0
0
0
0
0
0
0
0
0
0
0
0
0
0
0
0
0
0
0
0
0
0
0
0
0
0
0
0
0
0
0
0
0
0
0
0
0
0
0
0
0
0
0
0
0
0
0
0
0
0
0
0
0
0
0
0
0
0
0
0
0
0
0
0
0
0
0
0
0
0
0
0
0
0
0
0
0
0
0
0
0
0
0
0
0
0
0
0
0
0
0
0
0
0
0
0
0
0
0
0
0
0
0
0
0
0
0
0
0
0
0
0
0
0
0
0
0
0
0
0
0
0
0
0
0
0
0
0
0
0
0
0
0
0
0
0
0
0
0
0
0
0
0
0
0
0
0
0
0
0
0
0
0
0
0
0
0
0
0
0
0
0
0
0
0
0
0
0
0
0
0
0
0
0
0
0
)

// normalDirections

256
(
2(1 -1)
2(1 -1)
2(1 -1)
2(1 -1)
2(1 -1)
2(1 -1)
2(1 -1)
2(1 -1)
2(1 -1)
2(1 -1)
2(1 -1)
2(1 -1)
2(1 -1)
2(1 -1)
2(1 -1)
2(1 -1)
2(1 -1)
2(1 -1)
2(1 -1)
2(1 -1)
2(1 -1)
2(1 -1)
2(1 -1)
2(1 -1)
2(1 -1)
2(1 -1)
2(1 -1)
2(1 -1)
2(1 -1)
2(1 -1)
2(1 -1)
2(1 -1)
2(1 -1)
2(1 -1)
2(1 -1)
2(1 -1)
2(1 -1)
2(1 -1)
2(1 -1)
2(1 -1)
2(1 -1)
2(1 -1)
2(1 -1)
2(1 -1)
2(1 -1)
2(1 -1)
2(1 -1)
2(1 -1)
2(1 -1)
2(1 -1)
2(1 -1)
2(1 -1)
2(1 -1)
2(1 -1)
2(1 -1)
2(1 -1)
2(1 -1)
2(1 -1)
2(1 -1)
2(1 -1)
2(1 -1)
2(1 -1)
2(1 -1)
2(1 -1)
2(1 -1)
2(1 -1)
2(1 -1)
2(1 -1)
2(1 -1)
2(1 -1)
2(1 -1)
2(1 -1)
2(1 -1)
2(1 -1)
2(1 -1)
2(1 -1)
2(1 -1)
2(1 -1)
2(1 -1)
2(1 -1)
2(1 -1)
2(1 -1)
2(1 -1)
2(1 -1)
2(1 -1)
2(1 -1)
2(1 -1)
2(1 -1)
2(1 -1)
2(1 -1)
2(1 -1)
2(1 -1)
2(1 -1)
2(1 -1)
2(1 -1)
2(1 -1)
2(1 -1)
2(1 -1)
2(1 -1)
2(1 -1)
2(1 -1)
2(1 -1)
2(1 -1)
2(1 -1)
2(1 -1)
2(1 -1)
2(1 -1)
2(1 -1)
2(1 -1)
2(1 -1)
2(1 -1)
2(1 -1)
2(1 -1)
2(1 -1)
2(1 -1)
2(1 -1)
2(1 -1)
2(1 -1)
2(1 -1)
2(1 -1)
2(1 -1)
2(1 -1)
2(1 -1)
2(1 -1)
2(1 -1)
2(1 -1)
2(1 -1)
2(1 -1)
2(1 -1)
2(1 -1)
2(1 -1)
2(1 -1)
2(1 -1)
2(1 -1)
2(1 -1)
2(1 -1)
2(1 -1)
2(1 -1)
2(1 -1)
2(1 -1)
2(1 -1)
2(1 -1)
2(1 -1)
2(1 -1)
2(1 -1)
2(1 -1)
2(1 -1)
2(1 -1)
2(1 -1)
2(1 -1)
2(1 -1)
2(1 -1)
2(1 -1)
2(1 -1)
2(1 -1)
2(1 -1)
2(1 -1)
2(1 -1)
2(1 -1)
2(1 -1)
2(1 -1)
2(1 -1)
2(1 -1)
2(1 -1)
2(1 -1)
2(1 -1)
2(1 -1)
2(1 -1)
2(1 -1)
2(1 -1)
2(1 -1)
2(1 -1)
2(1 -1)
2(1 -1)
2(1 -1)
2(1 -1)
2(1 -1)
2(1 -1)
2(1 -1)
2(1 -1)
2(1 -1)
2(1 -1)
2(1 -1)
2(1 -1)
2(1 -1)
2(1 -1)
2(1 -1)
2(1 -1)
2(1 -1)
2(1 -1)
2(1 -1)
2(1 -1)
2(1 -1)
2(1 -1)
2(1 -1)
2(1 -1)
2(1 -1)
2(1 -1)
2(1 -1)
2(1 -1)
2(1 -1)
2(1 -1)
2(1 -1)
2(1 -1)
2(1 -1)
2(1 -1)
2(1 -1)
2(1 -1)
2(1 -1)
2(1 -1)
2(1 -1)
2(1 -1)
2(1 -1)
2(1 -1)
2(1 -1)
2(1 -1)
2(1 -1)
2(1 -1)
2(1 -1)
2(1 -1)
2(1 -1)
2(1 -1)
2(1 -1)
2(1 -1)
2(1 -1)
2(1 -1)
2(1 -1)
2(1 -1)
2(1 -1)
2(1 -1)
2(1 -1)
2(1 -1)
2(1 -1)
2(1 -1)
2(1 -1)
2(1 -1)
2(1 -1)
2(1 -1)
2(1 -1)
2(1 -1)
2(1 -1)
2(1 -1)
2(1 -1)
2(1 -1)
2(1 -1)
2(1 -1)
2(1 -1)
2(1 -1)
2(1 -1)
2(1 -1)
2(1 -1)
2(1 -1)
2(1 -1)
2(1 -1)
2(1 -1)
2(1 -1)
)

// edgeNormals

256
(
2(0 1)
2(2 3)
2(4 1)
2(5 6)
2(7 8)
2(9 6)
2(10 8)
2(11 12)
2(13 14)
2(15 12)
2(16 14)
2(17 18)
2(19 20)
2(21 18)
2(22 20)
2(23 24)
2(25 26)
2(27 24)
2(28 26)
2(29 30)
2(31 32)
2(33 30)
2(34 32)
2(35 36)
2(37 38)
2(39 36)
2(40 38)
2(41 42)
2(43 44)
2(45 42)
2(46 44)
2(47 48)
2(49 50)
2(51 48)
2(52 50)
2(53 54)
2(55 56)
2(57 54)
2(58 56)
2(59 60)
2(61 62)
2(63 60)
2(64 62)
2(65 66)
2(67 68)
2(69 66)
2(70 68)
2(71 72)
2(73 74)
2(75 72)
2(76 74)
2(77 78)
2(79 80)
2(81 78)
2(82 80)
2(83 84)
2(85 86)
2(87 84)
2(88 86)
2(89 90)
2(91 92)
2(93 90)
2(94 92)
2(95 96)
2(97 98)
2(99 96)
2(100 98)
2(101 102)
2(103 104)
2(105 102)
2(106 104)
2(107 108)
2(109 110)
2(111 108)
2(112 110)
2(113 114)
2(115 116)
2(117 114)
2(118 116)
2(119 120)
2(121 122)
2(123 120)
2(124 122)
2(125 126)
2(127 128)
2(129 126)
2(130 128)
2(131 132)
2(133 134)
2(135 132)
2(136 134)
2(137 138)
2(139 140)
2(141 138)
2(142 140)
2(143 144)
2(145 146)
2(147 144)
2(148 146)
2(149 150)
2(151 152)
2(153 150)
2(154 152)
2(155 156)
2(157 158)
2(159 156)
2(160 158)
2(161 162)
2(163 164)
2(165 162)
2(166 164)
2(167 168)
2(169 170)
2(171 168)
2(172 170)
2(173 174)
2(175 176)
2(177 174)
2(178 176)
2(179 180)
2(181 182)
2(183 180)
2(184 182)
2(185 186)
2(187 188)
2(189 186)
2(190 188)
2(191 192)
2(193 194)
2(195 192)
2(196 194)
2(197 198)
2(199 200)
2(201 198)
2(202 200)
2(203 204)
2(205 206)
2(207 204)
2(208 206)
2(209 210)
2(211 212)
2(213 210)
2(214 212)
2(215 216)
2(217 218)
2(219 216)
2(220 218)
2(221 222)
2(223 224)
2(225 222)
2(226 224)
2(227 228)
2(229 230)
2(231 228)
2(232 230)
2(233 234)
2(235 236)
2(237 234)
2(238 236)
2(239 240)
2(241 242)
2(243 240)
2(244 242)
2(245 246)
2(247 248)
2(249 246)
2(250 248)
2(251 252)
2(253 254)
2(255 252)
2(256 254)
2(257 258)
2(259 260)
2(261 258)
2(262 260)
2(263 264)
2(265 266)
2(267 264)
2(268 266)
2(269 270)
2(271 272)
2(273 270)
2(274 272)
2(275 276)
2(277 278)
2(279 276)
2(280 278)
2(281 282)
2(283 284)
2(285 282)
2(286 284)
2(287 288)
2(289 290)
2(291 288)
2(292 290)
2(293 294)
2(295 296)
2(297 294)
2(298 296)
2(299 300)
2(301 302)
2(303 300)
2(304 302)
2(305 306)
2(307 308)
2(309 306)
2(310 308)
2(311 312)
2(313 314)
2(315 312)
2(316 314)
2(317 318)
2(319 320)
2(321 318)
2(322 320)
2(323 324)
2(325 326)
2(327 324)
2(328 326)
2(329 330)
2(331 332)
2(333 330)
2(334 332)
2(335 336)
2(337 338)
2(339 336)
2(340 338)
2(341 342)
2(343 344)
2(345 342)
2(346 344)
2(347 348)
2(349 350)
2(351 348)
2(352 350)
2(353 354)
2(355 356)
2(357 354)
2(358 356)
2(359 360)
2(361 362)
2(363 360)
2(364 362)
2(365 366)
2(367 368)
2(369 366)
2(370 368)
2(371 372)
2(373 374)
2(375 372)
2(376 374)
2(377 378)
2(379 380)
2(379 381)
2(382 378)
2(383 3)
)

// featurePointNormals
0()
// featurePointEdges
0()
// regionEdges
0()


// ************************************************************************* //
