/*--------------------------------*- C++ -*----------------------------------*\
| =========                 |                                                 |
| \\      /  F ield         | OpenFOAM: The Open Source CFD Toolbox           |
|  \\    /   O peration     | Version:  2412                                  |
|   \\  /    A nd           | Website:  www.openfoam.com                      |
|    \\/     M anipulation  |                                                 |
\*---------------------------------------------------------------------------*/
FoamFile
{
    version     2.0;
    format      ascii;
    arch        "LSB;label=32;scalar=64";
    class       extendedFeatureEdgeMesh;
    location    "constant/extendedFeatureEdgeMesh";
    object      desk.extendedFeatureEdgeMesh;
}
// * * * * * * * * * * * * * * * * * * * * * * * * * * * * * * * * * * * * * //

// points

40
(
(-4.188827 1.421527 0.666708)
(-4.188827 1.421527 0.86672)
(-4.188827 2.621527 0.86672)
(-4.188827 2.621527 0.666708)
(-1.839868 2.621527 0.86672)
(-1.839868 2.621527 0.666708)
(-1.839868 1.421527 0.86672)
(-1.839868 1.421527 0.666708)
(-2.035615 1.421527 0)
(-2.035615 1.421527 0.666709)
(-2.035615 1.521527 0.666709)
(-2.035615 1.521527 0)
(-1.839868 1.521527 0.666709)
(-1.839868 1.521527 0)
(-1.839868 1.421527 0.666709)
(-1.839868 1.421527 0)
(-3.99308 1.421527 0)
(-3.99308 1.521527 0)
(-3.99308 1.521527 0.666709)
(-3.99308 1.421527 0.666709)
(-4.188827 1.521527 0)
(-4.188827 1.521527 0.666709)
(-4.188827 1.421527 0)
(-4.188827 1.421527 0.666709)
(-2.035615 2.621527 0)
(-2.035615 2.521527 0)
(-2.035615 2.521527 0.666709)
(-2.035615 2.621527 0.666709)
(-1.839868 2.521527 0)
(-1.839868 2.521527 0.666709)
(-1.839868 2.621527 0)
(-1.839868 2.621527 0.666709)
(-3.99308 2.621527 0)
(-3.99308 2.621527 0.666709)
(-3.99308 2.521527 0.666709)
(-3.99308 2.521527 0)
(-4.188827 2.521527 0.666709)
(-4.188827 2.521527 0)
(-4.188827 2.621527 0.666709)
(-4.188827 2.621527 0)
)

// edges

60
(
(0 1)
(1 2)
(2 3)
(3 0)
(2 4)
(4 5)
(5 3)
(4 6)
(6 7)
(7 5)
(0 7)
(6 1)
(8 9)
(9 10)
(10 11)
(11 8)
(10 12)
(12 13)
(13 11)
(12 14)
(14 15)
(15 13)
(14 9)
(8 15)
(17 18)
(16 17)
(19 16)
(18 19)
(20 21)
(17 20)
(21 18)
(22 23)
(20 22)
(23 21)
(22 16)
(19 23)
(25 26)
(24 25)
(27 24)
(26 27)
(28 29)
(25 28)
(29 26)
(30 31)
(28 30)
(31 29)
(30 24)
(27 31)
(32 33)
(33 34)
(34 35)
(35 32)
(34 36)
(36 37)
(37 35)
(36 38)
(38 39)
(39 37)
(38 33)
(32 39)
)

// concaveStart mixedStart nonFeatureStart
40 40 40
// internalStart flatStart openStart multipleStart
60 60 60 60
// normals

60
(
(-1 0 0)
(0 -1 0)
(0 0 1)
(-1 0 -0)
(0 1 0)
(0 0 -1)
(0 1 0)
(1 0 -0)
(0 0 -1)
(0 0 1)
(1 0 0)
(0 -1 0)
(-1 0 0)
(0 -1 0)
(0 0 1)
(-1 0 -0)
(0 1 0)
(0 0 -1)
(0 1 0)
(1 0 -0)
(0 0 -1)
(0 0 1)
(1 0 0)
(0 -1 0)
(1 0 0)
(-0 1 0)
(0 -0 -1)
(1 0 0)
(0 -1 0)
(0 -0 1)
(0 1 0)
(-1 0 0)
(0 0 -1)
(-1 0 0)
(-0 -1 0)
(0 0 1)
(-1 0 0)
(-0 -1 0)
(0 0 -1)
(-1 0 0)
(0 1 0)
(0 0 1)
(0 -1 0)
(1 0 0)
(0 -0 -1)
(1 0 0)
(-0 1 0)
(0 -0 1)
(1 0 -0)
(0 1 0)
(0 0 1)
(1 0 0)
(0 -1 0)
(0 0 -1)
(0 -1 0)
(-1 0 0)
(0 0 -1)
(0 0 1)
(-1 0 -0)
(0 1 0)
)

// normal volume types

60
(
0
0
0
0
0
0
0
0
0
0
0
0
0
0
0
0
0
0
0
0
0
0
0
0
0
0
0
0
0
0
0
0
0
0
0
0
0
0
0
0
0
0
0
0
0
0
0
0
0
0
0
0
0
0
0
0
0
0
0
0
)

// normalDirections

60
(
2(1 -1)
2(1 -1)
2(1 -1)
2(1 -1)
2(1 -1)
2(1 -1)
2(1 -1)
2(1 -1)
2(1 -1)
2(1 -1)
2(1 -1)
2(1 -1)
2(1 -1)
2(1 -1)
2(1 -1)
2(1 -1)
2(1 -1)
2(1 -1)
2(1 -1)
2(1 -1)
2(1 -1)
2(1 -1)
2(1 -1)
2(1 -1)
2(1 -1)
2(1 -1)
2(1 -1)
2(1 -1)
2(1 -1)
2(1 -1)
2(1 -1)
2(1 -1)
2(1 -1)
2(1 -1)
2(1 -1)
2(1 -1)
2(1 -1)
2(1 -1)
2(1 -1)
2(1 -1)
2(1 -1)
2(1 -1)
2(1 -1)
2(1 -1)
2(1 -1)
2(1 -1)
2(1 -1)
2(1 -1)
2(1 -1)
2(1 -1)
2(1 -1)
2(1 -1)
2(1 -1)
2(1 -1)
2(1 -1)
2(1 -1)
2(1 -1)
2(1 -1)
2(1 -1)
2(1 -1)
)

// edgeNormals

60
(
2(0 1)
2(0 2)
2(3 4)
2(3 5)
2(4 2)
2(6 7)
2(6 8)
2(7 9)
2(10 11)
2(10 8)
2(1 5)
2(11 9)
2(12 13)
2(12 14)
2(15 16)
2(15 17)
2(16 14)
2(18 19)
2(18 20)
2(19 21)
2(22 23)
2(22 20)
2(23 21)
2(13 17)
2(24 25)
2(24 26)
2(27 28)
2(27 29)
2(30 31)
2(30 32)
2(25 29)
2(33 34)
2(33 32)
2(31 35)
2(28 26)
2(34 35)
2(36 37)
2(36 38)
2(39 40)
2(39 41)
2(42 43)
2(42 44)
2(37 41)
2(45 46)
2(45 44)
2(43 47)
2(40 38)
2(46 47)
2(48 49)
2(48 50)
2(51 52)
2(51 53)
2(52 50)
2(54 55)
2(54 56)
2(55 57)
2(58 59)
2(58 56)
2(59 57)
2(49 53)
)

// featurePointNormals

40
(
3(0 1 5)
3(0 1 2)
3(0 2 4)
3(3 4 5)
3(4 2 7)
3(6 7 8)
3(7 9 11)
3(10 11 8)
3(12 13 17)
3(12 13 14)
3(12 14 16)
3(15 16 17)
3(16 14 19)
3(18 19 20)
3(19 21 23)
3(22 23 20)
3(24 26 28)
3(24 25 26)
3(24 25 29)
3(27 28 29)
3(30 31 32)
3(30 31 29)
3(33 34 32)
3(33 34 35)
3(36 38 40)
3(36 37 38)
3(36 37 41)
3(39 40 41)
3(42 43 44)
3(42 43 41)
3(45 46 44)
3(45 46 47)
3(48 49 53)
3(48 49 50)
3(48 50 52)
3(51 52 53)
3(52 50 55)
3(54 55 56)
3(55 57 59)
3(58 59 56)
)

// featurePointEdges

40
(
3(3 10 0)
3(0 11 1)
3(2 4 1)
3(2 6 3)
3(5 7 4)
3(5 9 6)
3(8 11 7)
3(8 10 9)
3(15 23 12)
3(12 22 13)
3(14 16 13)
3(14 18 15)
3(17 19 16)
3(17 21 18)
3(20 22 19)
3(20 23 21)
3(26 34 25)
3(24 29 25)
3(27 30 24)
3(26 35 27)
3(28 32 29)
3(30 33 28)
3(31 34 32)
3(33 35 31)
3(38 46 37)
3(36 41 37)
3(39 42 36)
3(38 47 39)
3(40 44 41)
3(42 45 40)
3(43 46 44)
3(45 47 43)
3(51 59 48)
3(48 58 49)
3(50 52 49)
3(50 54 51)
3(53 55 52)
3(53 57 54)
3(56 58 55)
3(56 59 57)
)

// regionEdges
0()


// ************************************************************************* //
