/*--------------------------------*- C++ -*----------------------------------*\
| =========                 |                                                 |
| \\      /  F ield         | OpenFOAM: The Open Source CFD Toolbox           |
|  \\    /   O peration     | Version:  2412                                  |
|   \\  /    A nd           | Website:  www.openfoam.com                      |
|    \\/     M anipulation  |                                                 |
\*---------------------------------------------------------------------------*/
FoamFile
{
    version     2.0;
    format      ascii;
    arch        "LSB;label=32;scalar=64";
    class       extendedFeatureEdgeMesh;
    location    "constant/extendedFeatureEdgeMesh";
    object      fan.extendedFeatureEdgeMesh;
}
// * * * * * * * * * * * * * * * * * * * * * * * * * * * * * * * * * * * * * //

// points

160
(
(-3.064414 1.4 2.454165)
(-3.079032 1.4 2.50198)
(-3.079032 1.9 2.50198)
(-3.064414 1.9 2.454165)
(-2.935586 1.9 2.545835)
(-2.920968 1.9 2.49802)
(-2.935586 1.4 2.545835)
(-2.920968 1.4 2.49802)
(-3.079032 2.6 2.49802)
(-3.079032 2.1 2.49802)
(-3.064414 2.1 2.545835)
(-3.064414 2.6 2.545835)
(-2.935586 2.1 2.454165)
(-2.920968 2.1 2.50198)
(-2.935586 2.6 2.454165)
(-2.920968 2.6 2.50198)
(-3.6 2.064414 2.454165)
(-3.6 2.079032 2.50198)
(-3.1 2.079032 2.50198)
(-3.1 2.064414 2.454165)
(-3.1 1.935586 2.545835)
(-3.1 1.920968 2.49802)
(-3.6 1.935586 2.545835)
(-3.6 1.920968 2.49802)
(-2.4 2.079032 2.49802)
(-2.9 2.079032 2.49802)
(-2.9 2.064414 2.545835)
(-2.4 2.064414 2.545835)
(-2.9 1.935586 2.454165)
(-2.9 1.920968 2.50198)
(-2.4 1.935586 2.454165)
(-2.4 1.920968 2.50198)
(-3 2.028 2.861)
(-2.994537 2.027462 2.861)
(-2.994537 2.027462 2.539)
(-3 2.028 2.539)
(-2.989285 2.025869 2.861)
(-2.989285 2.025869 2.539)
(-2.984444 2.023281 2.861)
(-2.984444 2.023281 2.539)
(-2.980201 2.019799 2.861)
(-2.980201 2.019799 2.539)
(-2.976719 2.015556 2.861)
(-2.976719 2.015556 2.539)
(-2.974131 2.010715 2.861)
(-2.974131 2.010715 2.539)
(-2.972538 2.005463 2.861)
(-2.972538 2.005463 2.539)
(-2.972 2 2.861)
(-2.972 2 2.539)
(-2.972538 1.994537 2.861)
(-2.972538 1.994537 2.539)
(-2.974131 1.989285 2.861)
(-2.974131 1.989285 2.539)
(-2.976719 1.984444 2.861)
(-2.976719 1.984444 2.539)
(-2.980201 1.980201 2.861)
(-2.980201 1.980201 2.539)
(-2.984444 1.976719 2.861)
(-2.984444 1.976719 2.539)
(-2.989285 1.974131 2.861)
(-2.989285 1.974131 2.539)
(-2.994538 1.972538 2.861)
(-2.994538 1.972538 2.539)
(-3 1.972 2.861)
(-3 1.972 2.539)
(-3.005463 1.972538 2.861)
(-3.005463 1.972538 2.539)
(-3.010715 1.974131 2.861)
(-3.010715 1.974131 2.539)
(-3.015556 1.976719 2.861)
(-3.015556 1.976719 2.539)
(-3.019799 1.980201 2.861)
(-3.019799 1.980201 2.539)
(-3.023281 1.984444 2.861)
(-3.023281 1.984444 2.539)
(-3.025869 1.989285 2.861)
(-3.025869 1.989285 2.539)
(-3.027462 1.994537 2.861)
(-3.027462 1.994537 2.539)
(-3.028 2 2.861)
(-3.028 2 2.539)
(-3.027462 2.005463 2.861)
(-3.027462 2.005463 2.539)
(-3.025869 2.010715 2.861)
(-3.025869 2.010715 2.539)
(-3.023281 2.015556 2.861)
(-3.023281 2.015556 2.539)
(-3.019799 2.019799 2.861)
(-3.019799 2.019799 2.539)
(-3.015556 2.023281 2.861)
(-3.015556 2.023281 2.539)
(-3.010715 2.025869 2.861)
(-3.010715 2.025869 2.539)
(-3.005462 2.027462 2.861)
(-3.005462 2.027462 2.539)
(-3 2.143 2.55)
(-2.985984 2.142312 2.55)
(-2.972102 2.140252 2.55)
(-2.958489 2.136842 2.55)
(-2.945276 2.132115 2.55)
(-2.93259 2.126115 2.55)
(-2.920553 2.1189 2.55)
(-2.909282 2.110541 2.55)
(-2.898884 2.101116 2.55)
(-2.889459 2.090718 2.55)
(-2.8811 2.079447 2.55)
(-2.873885 2.06741 2.55)
(-2.867885 2.054724 2.55)
(-2.863157 2.041511 2.55)
(-2.859748 2.027898 2.55)
(-2.857688 2.014016 2.55)
(-2.857 2 2.55)
(-2.857688 1.985983 2.55)
(-2.859748 1.972102 2.55)
(-2.863158 1.958489 2.55)
(-2.867885 1.945276 2.55)
(-2.873885 1.93259 2.55)
(-2.8811 1.920553 2.55)
(-2.889459 1.909282 2.55)
(-2.898884 1.898884 2.55)
(-2.909282 1.889459 2.55)
(-2.920553 1.8811 2.55)
(-2.93259 1.873885 2.55)
(-2.945276 1.867885 2.55)
(-2.958489 1.863157 2.55)
(-2.972102 1.859748 2.55)
(-2.985984 1.857688 2.55)
(-3 1.857 2.55)
(-3.014016 1.857688 2.55)
(-3.027898 1.859748 2.55)
(-3.041511 1.863157 2.55)
(-3.054724 1.867885 2.55)
(-3.06741 1.873885 2.55)
(-3.079447 1.8811 2.55)
(-3.090718 1.889459 2.55)
(-3.101116 1.898884 2.55)
(-3.110541 1.909282 2.55)
(-3.1189 1.920553 2.55)
(-3.126115 1.93259 2.55)
(-3.132115 1.945276 2.55)
(-3.136842 1.958489 2.55)
(-3.140252 1.972102 2.55)
(-3.142312 1.985983 2.55)
(-3.143 2 2.55)
(-3.142312 2.014016 2.55)
(-3.140252 2.027898 2.55)
(-3.136842 2.041511 2.55)
(-3.132115 2.054724 2.55)
(-3.126115 2.06741 2.55)
(-3.1189 2.079447 2.55)
(-3.110541 2.090718 2.55)
(-3.101116 2.101116 2.55)
(-3.090718 2.11054 2.55)
(-3.079447 2.1189 2.55)
(-3.06741 2.126115 2.55)
(-3.054724 2.132115 2.55)
(-3.041511 2.136842 2.55)
(-3.027898 2.140252 2.55)
(-3.014016 2.142311 2.55)
)

// edges

176
(
(0 1)
(1 2)
(2 3)
(3 0)
(2 4)
(4 5)
(5 3)
(4 6)
(6 7)
(7 5)
(0 7)
(6 1)
(9 10)
(8 9)
(11 8)
(10 11)
(12 13)
(9 12)
(13 10)
(14 15)
(12 14)
(15 13)
(14 8)
(11 15)
(16 17)
(17 18)
(18 19)
(19 16)
(18 20)
(20 21)
(21 19)
(20 22)
(22 23)
(23 21)
(22 17)
(16 23)
(25 26)
(24 25)
(27 24)
(26 27)
(28 29)
(25 28)
(29 26)
(30 31)
(28 30)
(31 29)
(30 24)
(27 31)
(32 33)
(34 35)
(33 36)
(37 34)
(36 38)
(39 37)
(38 40)
(41 39)
(40 42)
(43 41)
(42 44)
(45 43)
(44 46)
(47 45)
(46 48)
(49 47)
(48 50)
(51 49)
(50 52)
(53 51)
(52 54)
(55 53)
(54 56)
(57 55)
(56 58)
(59 57)
(58 60)
(61 59)
(60 62)
(63 61)
(62 64)
(65 63)
(64 66)
(67 65)
(66 68)
(69 67)
(68 70)
(71 69)
(70 72)
(73 71)
(72 74)
(75 73)
(74 76)
(77 75)
(76 78)
(79 77)
(78 80)
(81 79)
(80 82)
(83 81)
(82 84)
(85 83)
(84 86)
(87 85)
(86 88)
(89 87)
(88 90)
(91 89)
(90 92)
(93 91)
(94 92)
(32 94)
(95 93)
(35 95)
(96 97)
(97 98)
(98 99)
(99 100)
(100 101)
(101 102)
(102 103)
(103 104)
(104 105)
(105 106)
(106 107)
(107 108)
(108 109)
(109 110)
(110 111)
(111 112)
(112 113)
(113 114)
(114 115)
(115 116)
(116 117)
(117 118)
(118 119)
(119 120)
(120 121)
(121 122)
(122 123)
(123 124)
(124 125)
(125 126)
(126 127)
(127 128)
(128 129)
(129 130)
(130 131)
(131 132)
(132 133)
(133 134)
(134 135)
(135 136)
(136 137)
(137 138)
(138 139)
(139 140)
(140 141)
(141 142)
(142 143)
(143 144)
(144 145)
(145 146)
(146 147)
(147 148)
(148 149)
(149 150)
(150 151)
(151 152)
(152 153)
(153 154)
(154 155)
(155 156)
(156 157)
(157 158)
(158 159)
(159 96)
)

// concaveStart mixedStart nonFeatureStart
32 32 32
// internalStart flatStart openStart multipleStart
176 176 176 176
// normals

240
(
(-0.9563082 0 -0.2923604)
(0 -1 0)
(-0.2923663 0 0.9563064)
(-0.9563082 0 -0.2923604)
(0 1 -0)
(0.2923663 0 -0.9563064)
(0 1 0)
(0.9563082 0 0.2923604)
(0.2923663 0 -0.9563064)
(-0.2923663 0 0.9563064)
(0.9563082 0 0.2923604)
(0 -1 0)
(-0.9563082 0 0.2923604)
(-0 -1 0)
(-0.2923663 0 -0.9563064)
(-0.9563082 0 0.2923604)
(0 1 0)
(0.2923663 0 0.9563064)
(0 -1 0)
(0.9563082 0 -0.2923604)
(-0.2923663 -0 -0.9563064)
(0.9563082 0 -0.2923604)
(0 1 0)
(0.2923663 -0 0.9563064)
(0 0.9563082 -0.2923604)
(-1 0 0)
(0 0.2923663 0.9563064)
(0 0.9563082 -0.2923604)
(1 0 -0)
(0 -0.2923663 -0.9563064)
(1 0 0)
(0 -0.9563082 0.2923604)
(0 -0.2923663 -0.9563064)
(0 0.2923663 0.9563064)
(0 -0.9563082 0.2923604)
(-1 0 0)
(0 0.9563082 0.2923604)
(-1 0 0)
(0 0.2923663 -0.9563064)
(-0 0.9563082 0.2923604)
(1 0 0)
(0 -0.2923663 0.9563064)
(-1 -0 0)
(-0 -0.9563082 -0.2923604)
(0 0.2923663 -0.9563064)
(0 -0.9563082 -0.2923604)
(1 0 0)
(0 -0.2923663 0.9563064)
(0.0980286 0.9951836 -0)
(0 0 1)
(0.0980286 0.9951836 0)
(0 0 -1)
(0.2902678 0.9569455 -0)
(0.2902678 0.9569455 0)
(0 0 -1)
(0.4714221 0.8819077 -0)
(0 0 1)
(0.4714221 0.8819077 0)
(0.6343985 0.7730062 -0)
(0.6343985 0.7730062 0)
(0 0 -1)
(0.7730062 0.6343985 -0)
(0 0 1)
(0.7730062 0.6343985 0)
(0.8819077 0.4714221 -0)
(0.8819077 0.4714221 0)
(0 0 -1)
(0.9569455 0.2902678 -0)
(0 0 1)
(0.9569455 0.2902678 0)
(0.9951836 0.0980286 -0)
(0.9951836 0.0980286 0)
(0 0 -1)
(0.9951838 -0.09802648 0)
(0 0 1)
(0.9951838 -0.09802648 0)
(0.9569436 -0.2902738 0)
(0.9569436 -0.2902738 0)
(0 0 -1)
(0.8819029 -0.4714311 0)
(0 0 1)
(0.8819029 -0.4714311 0)
(0.7730149 -0.6343878 0)
(0.7730149 -0.6343878 0)
(0 0 -1)
(0.6343855 -0.7730168 0)
(0 0 1)
(0.6343855 -0.7730168 0)
(0.4714559 -0.8818896 0)
(0.4714559 -0.8818896 0)
(0 0 -1)
(0.2901997 -0.9569661 0)
(0 0 1)
(0.2901997 -0.9569661 0)
(0.09802404 -0.995184 0)
(0.09802404 -0.995184 0)
(-0 0 -1)
(-0.0980071 -0.9951857 0)
(0 0 1)
(-0.0980071 -0.9951857 -0)
(-0.2902479 -0.9569515 0)
(-0.2902479 -0.9569515 -0)
(0 0 -1)
(-0.4714559 -0.8818896 0)
(0 0 1)
(-0.4714559 -0.8818896 -0)
(-0.6343855 -0.7730168 0)
(-0.6343855 -0.7730168 -0)
(0 0 -1)
(-0.7730149 -0.6343878 0)
(0 0 1)
(-0.7730149 -0.6343878 -0)
(-0.8819029 -0.4714311 0)
(-0.8819029 -0.4714311 -0)
(0 0 -1)
(-0.9569436 -0.2902738 0)
(0 0 1)
(-0.9569436 -0.2902738 -0)
(-0.9951838 -0.09802648 0)
(-0.9951838 -0.09802648 -0)
(0 0 -1)
(-0.9951836 0.0980286 0)
(0 0 1)
(-0.9951836 0.0980286 0)
(-0.9569455 0.2902678 0)
(-0.9569455 0.2902678 0)
(0 0 -1)
(-0.8819077 0.4714221 0)
(0 0 1)
(-0.8819077 0.4714221 0)
(-0.7730062 0.6343985 0)
(-0.7730062 0.6343985 0)
(0 0 -1)
(-0.6343985 0.7730062 0)
(0 0 1)
(-0.6343985 0.7730062 0)
(-0.4714221 0.8819077 0)
(-0.4714221 0.8819077 0)
(0 0 -1)
(0 0 1)
(-0.2902195 0.9569601 0)
(-0.09804555 0.9951819 0)
(-0.2902195 0.9569601 0)
(-0.09804555 0.9951819 0)
(0.04895771 0.9976003 -0.04895771)
(0 0 1)
(0.1466033 0.9879776 -0.04906859)
(0.2427035 0.9688625 -0.04899413)
(0 0 1)
(0.3364523 0.9404272 -0.04895406)
(0.4270278 0.9029097 -0.04900369)
(0 0 1)
(0.5135007 0.8566885 -0.04900795)
(0.594975 0.802249 -0.04900267)
(0 0 1)
(0.6707911 0.7400218 -0.0490627)
(0.7400257 0.6707946 -0.04895529)
(0 0 1)
(0.8022465 0.5949732 -0.04906542)
(0.856689 0.513501 -0.04899711)
(0 0 1)
(0.9029096 0.4270278 -0.04900483)
(0.9404036 0.3365117 -0.0490002)
(0 0 1)
(0.9688774 0.2426393 -0.04901682)
(0.9879811 0.1466039 -0.04899644)
(0 0 1)
(0.9975946 0.04895743 -0.04907266)
(0.9976004 -0.04895397 -0.04895772)
(0 0 1)
(0.9879753 -0.1466156 -0.04907851)
(0.968863 -0.2427015 -0.04899414)
(0 0 1)
(0.9404272 -0.3364523 -0.04895406)
(0.9029097 -0.4270278 -0.04900369)
(0 0 1)
(0.8566885 -0.5135007 -0.04900795)
(0.8022492 -0.5949752 -0.04899763)
(0 0 1)
(0.7400234 -0.6707926 -0.04901716)
(0.6707899 -0.7400299 -0.04895528)
(0 0 1)
(0.5949734 -0.8022468 -0.04905862)
(0.513501 -0.856689 -0.04899711)
(0 0 1)
(0.4270416 -0.9029031 -0.04900486)
(0.3365041 -0.9404059 -0.04900816)
(0 0 1)
(0.2426314 -0.9688794 -0.0490168)
(0.1466123 -0.9879807 -0.0489797)
(0 0 1)
(0.04896592 -0.9975946 -0.04906421)
(-0.04896615 -0.9975994 -0.04896615)
(0 0 1)
(-0.1466117 -0.9879768 -0.04906018)
(-0.2426318 -0.9688813 -0.04897787)
(0 0 1)
(-0.3365039 -0.9404054 -0.04901777)
(-0.4270415 -0.9029028 -0.04901131)
(0 0 1)
(-0.5135007 -0.8566885 -0.04900795)
(-0.594975 -0.802249 -0.04900267)
(0 0 1)
(-0.6707866 -0.7400262 -0.04905643)
(-0.7400255 -0.6707945 -0.04895999)
(0 0 1)
(-0.8022465 -0.5949732 -0.04906542)
(-0.8566892 -0.5135011 -0.04899275)
(0 0 1)
(-0.9029096 -0.4270278 -0.04900483)
(-0.9404251 -0.3364515 -0.04900004)
(0 0 1)
(-0.9688651 -0.242702 -0.04895121)
(-0.9879793 -0.1466162 -0.04899647)
(0 0 1)
(-0.9975946 -0.04895368 -0.04907597)
(-0.9976003 0.04895771 -0.04895771)
(0 0 1)
(-0.9879776 0.1466033 -0.04906859)
(-0.9688625 0.2427035 -0.04899413)
(0 0 1)
(-0.9404272 0.3364523 -0.04895406)
(-0.9029097 0.4270278 -0.04900369)
(0 0 1)
(-0.8566885 0.5135007 -0.04900795)
(-0.802249 0.594975 -0.04900267)
(0 0 1)
(-0.7400218 0.6707911 -0.0490627)
(-0.6707464 0.7400661 -0.04900538)
(0 0 1)
(-0.5950299 0.8022086 -0.04899752)
(-0.513501 0.856689 -0.04899711)
(0 0 1)
(-0.4270265 0.9029069 -0.04906612)
(-0.3364515 0.9404251 -0.04900004)
(0 0 1)
(-0.242704 0.9688646 -0.04895121)
(-0.1465375 0.987991 -0.04899628)
(0 0 1)
(-0.04902531 0.9975946 -0.0490051)
)

// normal volume types

240
(
0
0
0
0
0
0
0
0
0
0
0
0
0
0
0
0
0
0
0
0
0
0
0
0
0
0
0
0
0
0
0
0
0
0
0
0
0
0
0
0
0
0
0
0
0
0
0
0
0
0
0
0
0
0
0
0
0
0
0
0
0
0
0
0
0
0
0
0
0
0
0
0
0
0
0
0
0
0
0
0
0
0
0
0
0
0
0
0
0
0
0
0
0
0
0
0
0
0
0
0
0
0
0
0
0
0
0
0
0
0
0
0
0
0
0
0
0
0
0
0
0
0
0
0
0
0
0
0
0
0
0
0
0
0
0
0
0
0
0
0
0
0
0
0
0
0
0
0
0
0
0
0
0
0
0
0
0
0
0
0
0
0
0
0
0
0
0
0
0
0
0
0
0
0
0
0
0
0
0
0
0
0
0
0
0
0
0
0
0
0
0
0
0
0
0
0
0
0
0
0
0
0
0
0
0
0
0
0
0
0
0
0
0
0
0
0
0
0
0
0
0
0
0
0
0
0
0
0
0
0
0
0
0
0
0
0
0
0
0
0
)

// normalDirections

176
(
2(1 -1)
2(1 -1)
2(1 -1)
2(1 -1)
2(1 -1)
2(1 -1)
2(1 -1)
2(1 -1)
2(1 -1)
2(1 -1)
2(1 -1)
2(1 -1)
2(1 -1)
2(1 -1)
2(1 -1)
2(1 -1)
2(1 -1)
2(1 -1)
2(1 -1)
2(1 -1)
2(1 -1)
2(1 -1)
2(1 -1)
2(1 -1)
2(1 -1)
2(1 -1)
2(1 -1)
2(1 -1)
2(1 -1)
2(1 -1)
2(1 -1)
2(1 -1)
2(1 -1)
2(1 -1)
2(1 -1)
2(1 -1)
2(1 -1)
2(1 -1)
2(1 -1)
2(1 -1)
2(1 -1)
2(1 -1)
2(1 -1)
2(1 -1)
2(1 -1)
2(1 -1)
2(1 -1)
2(1 -1)
2(1 -1)
2(1 -1)
2(1 -1)
2(1 -1)
2(1 -1)
2(1 -1)
2(1 -1)
2(1 -1)
2(1 -1)
2(1 -1)
2(1 -1)
2(1 -1)
2(1 -1)
2(1 -1)
2(1 -1)
2(1 -1)
2(1 -1)
2(1 -1)
2(1 -1)
2(1 -1)
2(1 -1)
2(1 -1)
2(1 -1)
2(1 -1)
2(1 -1)
2(1 -1)
2(1 -1)
2(1 -1)
2(1 -1)
2(1 -1)
2(1 -1)
2(1 -1)
2(1 -1)
2(1 -1)
2(1 -1)
2(1 -1)
2(1 -1)
2(1 -1)
2(1 -1)
2(1 -1)
2(1 -1)
2(1 -1)
2(1 -1)
2(1 -1)
2(1 -1)
2(1 -1)
2(1 -1)
2(1 -1)
2(1 -1)
2(1 -1)
2(1 -1)
2(1 -1)
2(1 -1)
2(1 -1)
2(1 -1)
2(1 -1)
2(1 -1)
2(1 -1)
2(1 -1)
2(1 -1)
2(1 -1)
2(1 -1)
2(1 -1)
2(1 -1)
2(1 -1)
2(1 -1)
2(1 -1)
2(1 -1)
2(1 -1)
2(1 -1)
2(1 -1)
2(1 -1)
2(1 -1)
2(1 -1)
2(1 -1)
2(1 -1)
2(1 -1)
2(1 -1)
2(1 -1)
2(1 -1)
2(1 -1)
2(1 -1)
2(1 -1)
2(1 -1)
2(1 -1)
2(1 -1)
2(1 -1)
2(1 -1)
2(1 -1)
2(1 -1)
2(1 -1)
2(1 -1)
2(1 -1)
2(1 -1)
2(1 -1)
2(1 -1)
2(1 -1)
2(1 -1)
2(1 -1)
2(1 -1)
2(1 -1)
2(1 -1)
2(1 -1)
2(1 -1)
2(1 -1)
2(1 -1)
2(1 -1)
2(1 -1)
2(1 -1)
2(1 -1)
2(1 -1)
2(1 -1)
2(1 -1)
2(1 -1)
2(1 -1)
2(1 -1)
2(1 -1)
2(1 -1)
2(1 -1)
2(1 -1)
2(1 -1)
2(1 -1)
2(1 -1)
2(1 -1)
2(1 -1)
2(1 -1)
2(1 -1)
2(1 -1)
)

// edgeNormals

176
(
2(0 1)
2(0 2)
2(3 4)
2(3 5)
2(4 2)
2(6 7)
2(6 8)
2(7 9)
2(10 11)
2(10 8)
2(1 5)
2(11 9)
2(12 13)
2(12 14)
2(15 16)
2(15 17)
2(18 19)
2(18 20)
2(13 17)
2(21 22)
2(21 20)
2(19 23)
2(16 14)
2(22 23)
2(24 25)
2(24 26)
2(27 28)
2(27 29)
2(28 26)
2(30 31)
2(30 32)
2(31 33)
2(34 35)
2(34 32)
2(35 33)
2(25 29)
2(36 37)
2(36 38)
2(39 40)
2(39 41)
2(42 43)
2(42 44)
2(37 41)
2(45 46)
2(45 44)
2(43 47)
2(40 38)
2(46 47)
2(48 49)
2(50 51)
2(52 49)
2(53 54)
2(55 56)
2(57 54)
2(58 56)
2(59 60)
2(61 62)
2(63 60)
2(64 62)
2(65 66)
2(67 68)
2(69 66)
2(70 68)
2(71 72)
2(73 74)
2(75 72)
2(76 74)
2(77 78)
2(79 80)
2(81 78)
2(82 80)
2(83 84)
2(85 86)
2(87 84)
2(88 86)
2(89 90)
2(91 92)
2(93 90)
2(94 92)
2(95 96)
2(97 98)
2(99 96)
2(100 98)
2(101 102)
2(103 104)
2(105 102)
2(106 104)
2(107 108)
2(109 110)
2(111 108)
2(112 110)
2(113 114)
2(115 116)
2(117 114)
2(118 116)
2(119 120)
2(121 122)
2(123 120)
2(124 122)
2(125 126)
2(127 128)
2(129 126)
2(130 128)
2(131 132)
2(133 134)
2(135 132)
2(136 134)
2(137 138)
2(139 140)
2(139 141)
2(142 138)
2(143 51)
2(144 145)
2(146 145)
2(147 148)
2(149 148)
2(150 151)
2(152 151)
2(153 154)
2(155 154)
2(156 157)
2(158 157)
2(159 160)
2(161 160)
2(162 163)
2(164 163)
2(165 166)
2(167 166)
2(168 169)
2(170 169)
2(171 172)
2(173 172)
2(174 175)
2(176 175)
2(177 178)
2(179 178)
2(180 181)
2(182 181)
2(183 184)
2(185 184)
2(186 187)
2(188 187)
2(189 190)
2(191 190)
2(192 193)
2(194 193)
2(195 196)
2(197 196)
2(198 199)
2(200 199)
2(201 202)
2(203 202)
2(204 205)
2(206 205)
2(207 208)
2(209 208)
2(210 211)
2(212 211)
2(213 214)
2(215 214)
2(216 217)
2(218 217)
2(219 220)
2(221 220)
2(222 223)
2(224 223)
2(225 226)
2(227 226)
2(228 229)
2(230 229)
2(231 232)
2(233 232)
2(234 235)
2(236 235)
2(237 238)
2(239 238)
)

// featurePointNormals

32
(
3(0 1 5)
3(0 1 2)
3(0 2 4)
3(3 4 5)
3(4 2 7)
3(6 7 8)
3(7 9 11)
3(10 11 8)
3(12 14 16)
3(12 13 14)
3(12 13 17)
3(15 16 17)
3(18 19 20)
3(18 19 17)
3(21 22 20)
3(21 22 23)
3(24 25 29)
3(24 25 26)
3(24 26 28)
3(27 28 29)
3(28 26 31)
3(30 31 32)
3(31 33 35)
3(34 35 32)
3(36 38 40)
3(36 37 38)
3(36 37 41)
3(39 40 41)
3(42 43 44)
3(42 43 41)
3(45 46 44)
3(45 46 47)
)

// featurePointEdges

32
(
3(3 10 0)
3(0 11 1)
3(2 4 1)
3(2 6 3)
3(5 7 4)
3(5 9 6)
3(8 11 7)
3(8 10 9)
3(14 22 13)
3(12 17 13)
3(15 18 12)
3(14 23 15)
3(16 20 17)
3(18 21 16)
3(19 22 20)
3(21 23 19)
3(27 35 24)
3(24 34 25)
3(26 28 25)
3(26 30 27)
3(29 31 28)
3(29 33 30)
3(32 34 31)
3(32 35 33)
3(38 46 37)
3(36 41 37)
3(39 42 36)
3(38 47 39)
3(40 44 41)
3(42 45 40)
3(43 46 44)
3(45 47 43)
)

// regionEdges
0()


// ************************************************************************* //
