/*--------------------------------*- C++ -*----------------------------------*\
| =========                 |                                                 |
| \\      /  F ield         | OpenFOAM: The Open Source CFD Toolbox           |
|  \\    /   O peration     | Version:  2412                                  |
|   \\  /    A nd           | Website:  www.openfoam.com                      |
|    \\/     M anipulation  |                                                 |
\*---------------------------------------------------------------------------*/
FoamFile
{
    version     2.0;
    format      ascii;
    arch        "LSB;label=32;scalar=64";
    class       extendedFeatureEdgeMesh;
    location    "constant/extendedFeatureEdgeMesh";
    object      room.extendedFeatureEdgeMesh;
}
// * * * * * * * * * * * * * * * * * * * * * * * * * * * * * * * * * * * * * //

// points

32
(
(-5.64239 4.435196 2.8)
(0.217568 4.435196 2.8)
(0.217568 -0.416065 2.8)
(-5.64239 -0.416065 2.8)
(0.217568 -0.416065 -0)
(-5.64239 -0.416065 -0)
(-5.64239 4.435196 -0)
(0.217568 4.435196 -0)
(-5.64239 2.490706 2.1)
(0.217568 1.581186 2.1)
(0.217568 1.581186 -0)
(0.217568 2.349192 -0)
(0.217568 2.349192 2.1)
(-5.64239 1.645513 2.1)
(-5.64239 1.645513 1.05)
(-5.64239 2.490706 1.05)
(0.217568 2.349192 1.05)
(0.217568 1.581186 1.05)
(-5.64239 2.490706 2.8)
(-5.64239 4.435196 2.1)
(0.217568 4.435196 2.1)
(0.217568 1.581186 2.8)
(0.217568 -0.416065 2.1)
(-5.64239 -0.416065 2.1)
(-5.64239 1.645513 -0)
(-5.64239 1.645513 2.8)
(0.217568 2.349192 2.8)
(-5.64239 2.490706 -0)
(-5.64239 -0.416065 1.05)
(0.217568 4.435196 1.05)
(0.217568 -0.416065 1.05)
(-5.64239 4.435196 1.05)
)

// edges

37
(
(18 0)
(0 19)
(0 1)
(1 20)
(21 2)
(2 22)
(2 3)
(3 23)
(4 5)
(5 24)
(10 4)
(25 3)
(26 1)
(18 25)
(21 26)
(6 7)
(7 11)
(27 6)
(24 27)
(28 23)
(29 20)
(30 22)
(31 19)
(31 6)
(29 7)
(30 4)
(28 5)
(11 10)
(9 12)
(8 13)
(13 14)
(12 16)
(17 9)
(15 8)
(10 17)
(16 11)
(14 15)
)

// concaveStart mixedStart nonFeatureStart
8 8 16
// internalStart flatStart openStart multipleStart
27 27 27 37
// normals

51
(
(0 0 -1)
(1 0 0)
(-1 0 -0)
(-1 0 -0)
(1 0 0)
(1 0 -0)
(-1 0 0)
(1 0 -0)
(1 0 0)
(-1 0 0)
(-1 0 0)
(0 0 1)
(-1 0 -0)
(0 1 0)
(0 1 0)
(1 0 -0)
(1 0 -0)
(0 0 1)
(1 0 0)
(0 -1 0)
(0 -1 0)
(-1 0 0)
(0 0 -1)
(0 -1 0)
(-1 0 -0)
(0 0 -1)
(1 0 0)
(0 0 1)
(-0 0 1)
(0 0 1)
(-1 0 0)
(-0 0 1)
(1 0 -0)
(0 0 -1)
(0 1 0)
(0 0 -1)
(-1 0 -0)
(0 0 -1)
(-1 0 -0)
(-1 0 0)
(0 -1 0)
(1 0 -0)
(0 1 0)
(0 -1 0)
(1 0 0)
(0 1 0)
(-1 0 -0)
(0 1 0)
(1 0 -0)
(0 -1 0)
(-1 0 0)
)

// normal volume types

51
(
0
0
0
0
0
0
0
0
0
0
0
0
0
0
0
0
0
0
0
0
0
0
0
0
0
0
0
0
0
0
0
0
0
0
0
0
0
0
0
0
0
0
0
0
0
0
0
0
0
0
0
)

// normalDirections

37
(
2(1 -1)
2(1 -1)
2(1 -1)
2(1 -1)
2(1 -1)
2(1 -1)
2(1 -1)
2(1 -1)
2(1 -1)
2(1 -1)
2(1 -1)
2(1 -1)
2(1 -1)
2(1 -1)
2(1 -1)
2(1 -1)
2(1 -1)
2(1 -1)
2(1 -1)
2(1 -1)
2(1 -1)
2(1 -1)
2(1 -1)
2(1 -1)
2(1 -1)
2(1 -1)
2(1 -1)
1(1)
1(1)
1(1)
1(1)
1(1)
1(1)
1(1)
1(1)
1(1)
1(1)
)

// edgeNormals

37
(
2(10 11)
2(12 13)
2(13 11)
2(14 15)
2(16 17)
2(18 19)
2(19 17)
2(20 21)
2(22 23)
2(22 24)
2(25 26)
2(27 21)
2(28 15)
2(29 30)
2(31 32)
2(33 34)
2(33 8)
2(35 36)
2(37 38)
2(39 40)
2(41 42)
2(43 44)
2(45 46)
2(36 47)
2(34 48)
2(26 49)
2(23 50)
1(0)
1(1)
1(2)
1(3)
1(4)
1(5)
1(6)
1(7)
1(8)
1(9)
)

// featurePointNormals

16
(
3(10 11 13)
3(13 11 15)
3(16 17 19)
3(19 17 21)
3(22 23 26)
3(22 23 24)
3(33 34 36)
3(33 34 8)
1(2)
1(1)
2(25 26)
2(33 8)
1(1)
1(2)
1(3)
1(6)
)

// featurePointEdges

16
(
3(1 2 0)
3(3 12 2)
3(5 6 4)
3(7 11 6)
3(10 25 8)
3(8 26 9)
3(17 23 15)
3(15 24 16)
2(29 33)
2(28 32)
3(10 27 34)
3(16 27 35)
2(28 31)
2(29 30)
2(30 36)
2(33 36)
)

// regionEdges
10(27 28 29 30 31 32 33 34 35 36)


// ************************************************************************* //
